2ym8_active_site_ligand_fixed.pdb
 OpenBabel09192619233D

 27 29  0  0  1  0  0  0  0  0999 V2000
   15.1990   -3.3210   11.2440 C   0  0  0  0  0  0  0  0  0  0  0  0
   15.3130   -3.9110   16.0280 C   0  0  0  0  0  0  0  0  0  0  0  0
   15.6290   -1.7460   15.0200 C   0  0  0  0  0  0  0  0  0  0  0  0
   10.1130   -1.8040   13.6000 N   0  0  0  0  0  0  0  0  0  0  0  0
   20.6760    0.9060    7.4620 Cl  0  0  0  0  0  0  0  0  0  0  0  0
   10.8770   -1.3100   12.9130 C   0  0  0  0  0  0  0  0  0  0  0  0
   19.7620   -1.9840   10.0760 C   0  0  0  0  0  0  0  0  0  0  0  0
   20.4560   -1.1750    9.1820 C   0  0  0  0  0  0  0  0  0  0  0  0
   18.4260   -1.7230   10.3630 C   0  0  0  0  0  0  0  0  0  0  0  0
   12.4270    0.9940   10.5920 C   0  0  0  0  0  0  0  0  0  0  0  0
   17.8180    1.2220    8.2660 C   0  0  0  0  0  0  0  0  0  0  0  0
   16.4490   -0.3680   10.0220 C   0  0  0  0  0  0  0  0  0  0  0  0
   15.2830   -3.6260   13.6120 C   0  0  0  0  0  0  0  0  0  0  0  0
   11.5370    0.4300   11.3880 N   0  0  0  0  0  0  0  0  0  0  0  0
   16.5490    1.4730    8.5440 N   0  0  0  0  0  0  0  0  0  0  0  0
   14.0070   -0.6810   11.0940 N   0  0  0  0  0  0  0  0  0  0  0  0
   14.5570    1.0550    9.6150 N   0  0  0  0  0  0  0  0  0  0  0  0
   13.4210   -2.4050   12.5800 O   0  0  0  0  0  0  0  0  0  0  0  0
   19.8130   -0.1020    8.5750 C   0  0  0  0  0  0  0  0  0  0  0  0
   11.8490   -0.6910   12.0560 C   0  0  2  0  0  0  0  0  0  0  0  0
   13.6840    0.4250   10.4110 C   0  0  0  0  0  0  0  0  0  0  0  0
   15.8320    0.7050    9.3810 C   0  0  0  0  0  0  0  0  0  0  0  0
   13.0940   -1.2860   11.8690 C   0  0  0  0  0  0  0  0  0  0  0  0
   17.7850   -0.6490    9.7550 C   0  0  0  0  0  0  0  0  0  0  0  0
   18.4770    0.1570    8.8650 C   0  0  0  0  0  0  0  0  0  0  0  0
   14.8450   -2.6230   12.5590 C   0  0  2  0  0  0  0  0  0  0  0  0
   14.9300   -3.0350   14.9130 N   0  0  0  0  0  0  0  0  0  0  0  0
  5 19  1  0  0  0  0
  6  4  3  0  0  0  0
  7  9  1  0  0  0  0
  8  7  2  0  0  0  0
 10 14  2  0  0  0  0
 11 15  1  0  0  0  0
 11 25  1  0  0  0  0
 13 27  1  0  0  0  0
 14 20  1  0  0  0  0
 15 22  2  0  0  0  0
 16 23  2  0  0  0  0
 17 21  2  0  0  0  0
 19 25  2  0  0  0  0
 19  8  1  0  0  0  0
 20  6  1  6  0  0  0
 21 10  1  0  0  0  0
 21 16  1  0  0  0  0
 22 17  1  0  0  0  0
 22 12  1  0  0  0  0
 23 20  1  0  0  0  0
 23 18  1  0  0  0  0
 24 12  1  0  0  0  0
 24  9  2  0  0  0  0
 25 24  1  0  0  0  0
 26  1  1  6  0  0  0
 26 18  1  0  0  0  0
 26 13  1  0  0  0  0
 27  3  1  0  0  0  0
 27  2  1  0  0  0  0
M  END
$$$$
