9l40_active_site_ligand_fixed.pdb
 OpenBabel09192619233D

 35 38  0  0  0  0  0  0  0  0999 V2000
  138.0970  207.6800  168.3460 C   0  0  0  0  0  0  0  0  0  0  0  0
  139.2150  207.7370  167.5300 C   0  0  0  0  0  0  0  0  0  0  0  0
  140.6180  207.9480  169.4870 C   0  0  0  0  0  0  0  0  0  0  0  0
  141.9510  208.1160  170.1170 C   0  0  0  0  0  0  0  0  0  0  0  0
  143.1220  208.4770  172.0720 C   0  0  0  0  0  0  0  0  0  0  0  0
  141.8340  209.3270  174.1110 C   0  0  0  0  0  0  0  0  0  0  0  0
  142.0150  209.0380  175.4760 C   0  0  0  0  0  0  0  0  0  0  0  0
  141.1180  209.3640  176.5920 C   0  0  0  0  0  0  0  0  0  0  0  0
  139.0810  210.3730  177.3790 C   0  0  0  0  0  0  0  0  0  0  0  0
  140.3030  208.9220  178.8100 C   0  0  0  0  0  0  0  0  0  0  0  0
  134.4270  208.9720  168.5300 C   0  0  0  0  0  0  0  0  0  0  0  0
  139.4750  207.8870  170.2800 C   0  0  0  0  0  0  0  0  0  0  0  0
  138.2190  207.7530  169.7210 C   0  0  0  0  0  0  0  0  0  0  0  0
  143.1540  208.0430  169.4200 C   0  0  0  0  0  0  0  0  0  0  0  0
  144.3510  208.4010  171.3570 C   0  0  0  0  0  0  0  0  0  0  0  0
  142.8590  208.7150  173.4820 C   0  0  0  0  0  0  0  0  0  0  0  0
  135.7180  209.0940  167.7520 C   0  0  0  0  0  0  0  0  0  0  0  0
  140.0220  210.1890  176.3870 C   0  0  0  0  0  0  0  0  0  0  0  0
  139.2040  209.7400  178.6030 C   0  0  0  0  0  0  0  0  0  0  0  0
  141.2490  208.7350  177.8190 C   0  0  0  0  0  0  0  0  0  0  0  0
  136.6720  210.1080  168.3480 C   0  0  0  0  0  0  0  0  0  0  0  0
  138.1270  209.8640  179.6460 C   0  0  0  0  0  0  0  0  0  0  0  0
  136.8800  208.5800  177.9020 C   0  0  0  0  0  0  0  0  0  0  0  0
  140.4650  207.8700  168.1060 C   0  0  0  0  0  0  0  0  0  0  0  0
  144.3360  208.1820  170.0250 N   0  0  0  0  0  0  0  0  0  0  0  0
  141.9540  208.3340  171.4350 N   0  0  0  0  0  0  0  0  0  0  0  0
  143.0850  208.3030  175.6740 N   0  0  0  0  0  0  0  0  0  0  0  0
  136.8230  209.2960  179.2010 N   0  0  0  0  0  0  0  0  0  0  0  0
  145.5370  208.5180  171.9530 N   0  0  0  0  0  0  0  0  0  0  0  0
  143.6380  208.0870  174.3940 O   0  0  0  0  0  0  0  0  0  0  0  0
  136.6780  207.1930  166.2290 O   0  0  0  0  0  0  0  0  0  0  0  0
  135.7570  206.5660  168.4330 O   0  0  0  0  0  0  0  0  0  0  0  0
  136.5000  207.4930  167.6240 S   0  0  0  0  0  0  0  0  0  0  0  0
  136.5290  208.7330  179.8140 H   0  0  0  0  0  0  0  0  0  0  0  0
  146.2470  208.4750  171.4280 H   0  0  0  0  0  0  0  0  0  0  0  0
  1 13  1  0  0  0  0
  2 24  1  0  0  0  0
  2  1  2  0  0  0  0
  3  4  1  0  0  0  0
  3 12  1  0  0  0  0
  4 26  1  0  0  0  0
  5 16  1  0  0  0  0
  6  7  1  0  0  0  0
  7 27  2  0  0  0  0
  7  8  1  0  0  0  0
  8 20  1  0  0  0  0
  9 19  2  0  0  0  0
 13 12  2  0  0  0  0
 14 25  1  0  0  0  0
 14  4  2  0  0  0  0
 15 29  1  0  0  0  0
 15  5  1  0  0  0  0
 16  6  2  0  0  0  0
 16 30  1  0  0  0  0
 17 21  1  0  0  0  0
 17 11  1  0  0  0  0
 18  8  2  0  0  0  0
 18  9  1  0  0  0  0
 19 10  1  0  0  0  0
 19 22  1  0  0  0  0
 20 10  2  0  0  0  0
 23 28  1  0  0  0  0
 24  3  2  0  0  0  0
 25 15  2  0  0  0  0
 26  5  2  0  0  0  0
 28 22  1  0  0  0  0
 28 34  1  0  0  0  0
 30 27  1  0  0  0  0
 31 33  2  0  0  0  0
 33 17  1  0  0  0  0
 33  1  1  0  0  0  0
 33 32  2  0  0  0  0
 35 29  1  0  0  0  0
M  END
$$$$
