9l4b_active_site_ligand_fixed.pdb
 OpenBabel09192619233D

 30 35  0  0  1  0  0  0  0  0999 V2000
  146.6920  213.3740  178.8600 C   0  0  0  0  0  0  0  0  0  0  0  0
  146.4500  212.3280  179.8890 C   0  0  0  0  0  0  0  0  0  0  0  0
  144.0780  212.4910  180.5800 C   0  0  0  0  0  0  0  0  0  0  0  0
  143.5940  212.6970  182.7610 C   0  0  0  0  0  0  0  0  0  0  0  0
  145.0100  212.3710  184.7560 C   0  0  0  0  0  0  0  0  0  0  0  0
  146.7200  212.2090  186.1030 C   0  0  0  0  0  0  0  0  0  0  0  0
  141.7740  212.7800  181.2130 C   0  0  0  0  0  0  0  0  0  0  0  0
  142.7340  212.6100  180.2260 C   0  0  0  0  0  0  0  0  0  0  0  0
  140.3250  213.0500  180.8050 C   0  0  1  0  0  0  0  0  0  0  0  0
  138.3740  214.5740  181.4890 C   0  0  1  0  0  0  0  0  0  0  0  0
  137.3500  212.8930  180.1320 C   0  0  0  0  0  0  0  0  0  0  0  0
  139.3920  211.9410  181.3080 C   0  0  0  0  0  0  0  0  0  0  0  0
  145.4450  210.4730  177.9240 C   0  0  0  0  0  0  0  0  0  0  0  0
  142.2350  212.8090  182.5440 C   0  0  0  0  0  0  0  0  0  0  0  0
  141.6510  212.7060  183.8280 C   0  0  0  0  0  0  0  0  0  0  0  0
  145.4260  212.7130  186.0170 C   0  0  0  0  0  0  0  0  0  0  0  0
  144.6510  211.7030  178.3210 C   0  0  2  0  0  0  0  0  0  0  0  0
  139.8710  214.4190  181.3290 C   0  0  0  0  0  0  0  0  0  0  0  0
  137.6060  214.4110  180.1960 C   0  0  0  0  0  0  0  0  0  0  0  0
  137.9490  212.3760  181.4350 C   0  0  1  0  0  0  0  0  0  0  0  0
  144.9420  212.8350  177.4020 C   0  0  0  0  0  0  0  0  0  0  0  0
  142.5700  212.5470  184.7600 N   0  0  0  0  0  0  0  0  0  0  0  0
  143.7820  212.5430  184.1020 N   0  0  0  0  0  0  0  0  0  0  0  0
  147.0840  211.6000  184.9820 N   0  0  0  0  0  0  0  0  0  0  0  0
  146.0100  211.7110  184.1570 N   0  0  0  0  0  0  0  0  0  0  0  0
  145.0210  212.1650  179.6640 N   0  0  0  0  0  0  0  0  0  0  0  0
  144.5240  212.5540  181.8300 N   0  0  0  0  0  0  0  0  0  0  0  0
  137.8890  213.5060  182.3320 O   0  0  0  0  0  0  0  0  0  0  0  0
  140.2470  213.0840  179.3810 O   0  0  0  0  0  0  0  0  0  0  0  0
  146.3460  212.8960  177.5800 O   0  0  0  0  0  0  0  0  0  0  0  0
  1  2  1  0  0  0  0
  3 27  1  0  0  0  0
  4 23  1  0  0  0  0
  5 16  1  0  0  0  0
  7 14  2  0  0  0  0
  8  3  2  0  0  0  0
  8  7  1  0  0  0  0
  9 29  1  6  0  0  0
  9  7  1  0  0  0  0
  9 12  1  0  0  0  0
  9 18  1  0  0  0  0
 10 19  1  6  0  0  0
 10 28  1  0  0  0  0
 11 19  1  0  0  0  0
 12 20  1  0  0  0  0
 14  4  1  0  0  0  0
 14 15  1  0  0  0  0
 15 22  2  0  0  0  0
 16  6  1  0  0  0  0
 17 13  1  6  0  0  0
 17 26  1  0  0  0  0
 18 10  1  0  0  0  0
 20 11  1  6  0  0  0
 20 28  1  0  0  0  0
 21 30  1  0  0  0  0
 21 17  1  0  0  0  0
 23  5  1  0  0  0  0
 23 22  1  0  0  0  0
 24  6  2  0  0  0  0
 25  5  2  0  0  0  0
 25 24  1  0  0  0  0
 26  2  1  0  0  0  0
 26  3  1  0  0  0  0
 27  4  2  0  0  0  0
 30  1  1  0  0  0  0
M  END
$$$$
